(PID.TID 0000.0001) ** Warning ** FLT_READPARMS: ignores "data.flt" file since
(PID.TID 0000.0001) ** Warning ** FLT_READPARMS: useFLT= F (set from "data.pkg")
